<?xml version="1.0" encoding="UTF-8"?>

<!-- generated on 2025-12-30 06:34:43 by Eclipse SUMO netconvert Version 1.21.0
<netconvertConfiguration xmlns:xsi="http://www.w3.org/2001/XMLSchema-instance" xsi:noNamespaceSchemaLocation="http://sumo.dlr.de/xsd/netconvertConfiguration.xsd">

    <input>
        <osm-files value="..\maps\sf_mission.osm"/>
    </input>

    <output>
        <output-file value="..\maps\sf_mission.net.xml"/>
    </output>

    <projection>
        <proj.utm value="true"/>
    </projection>

    <processing>
        <geometry.remove value="true"/>
    </processing>

    <tls_building>
        <tls.guess-signals value="true"/>
        <tls.default-type value="actuated"/>
    </tls_building>

    <ramp_guessing>
        <ramps.guess value="true"/>
    </ramp_guessing>

    <edge_removal>
        <keep-edges.by-vclass value="passenger"/>
        <remove-edges.isolated value="true"/>
    </edge_removal>

    <junctions>
        <junctions.join value="true"/>
    </junctions>

</netconvertConfiguration>
-->

<net version="1.20" junctionCornerDetail="5" limitTurnSpeed="5.50" xmlns:xsi="http://www.w3.org/2001/XMLSchema-instance" xsi:noNamespaceSchemaLocation="http://sumo.dlr.de/xsd/net_file.xsd">

    <location netOffset="-550437.48,-4178024.89" convBoundary="0.00,0.00,1833.68,1905.96" origBoundary="-122.443381,37.729135,-122.398671,37.771990" projParameter="+proj=utm +zone=10 +ellps=WGS84 +datum=WGS84 +units=m +no_defs"/>

    <type id="highway.living_street" priority="2" numLanes="1" speed="2.78" disallow="tram rail_urban rail rail_electric rail_fast ship container cable_car subway aircraft wheelchair scooter drone" oneway="0"/>
    <type id="highway.primary" priority="12" numLanes="2" speed="27.78" disallow="tram rail_urban rail rail_electric rail_fast ship container cable_car subway aircraft wheelchair scooter drone" oneway="0"/>
    <type id="highway.residential" priority="3" numLanes="1" speed="13.89" disallow="tram rail_urban rail rail_electric rail_fast ship container cable_car subway aircraft wheelchair scooter drone" oneway="0"/>
    <type id="highway.secondary" priority="11" numLanes="1" speed="27.78" disallow="tram rail_urban rail rail_electric rail_fast ship container cable_car subway aircraft wheelchair scooter drone" oneway="0"/>
    <type id="highway.tertiary" priority="10" numLanes="1" speed="22.22" disallow="tram rail_urban rail rail_electric rail_fast ship container cable_car subway aircraft wheelchair scooter drone" oneway="0"/>
    <type id="highway.unclassified" priority="4" numLanes="1" speed="13.89" disallow="tram rail_urban rail rail_electric rail_fast ship container cable_car subway aircraft wheelchair scooter drone" oneway="0"/>

    <edge id=":10069634108_0" function="internal">
        <lane id=":10069634108_0_0" index="0" disallow="tram rail_urban rail rail_electric rail_fast ship container cable_car subway aircraft wheelchair scooter drone" speed="8.94" length="8.04" shape="762.14,837.11 761.46,845.12"/>
    </edge>
    <edge id=":10069634108_1" function="internal">
        <lane id=":10069634108_1_0" index="0" disallow="tram rail_urban rail rail_electric rail_fast ship container cable_car subway aircraft wheelchair scooter drone" speed="8.94" length="8.52" shape="755.08,844.54 754.80,842.06 753.84,840.45 752.87,838.83 752.57,836.35"/>
        <lane id=":10069634108_1_1" index="1" disallow="tram rail_urban rail rail_electric rail_fast ship container cable_car subway aircraft wheelchair scooter drone" speed="8.94" length="8.52" shape="758.27,844.83 757.99,842.34 757.03,840.72 756.06,839.09 755.76,836.60"/>
        <lane id=":10069634108_1_2" index="2" disallow="tram rail_urban rail rail_electric rail_fast ship container cable_car subway aircraft wheelchair scooter drone" speed="8.94" length="8.52" shape="758.27,844.83 758.95,836.86"/>
    </edge>
    <edge id=":10069962757_0" function="internal">
        <lane id=":10069962757_0_0" index="0" disallow="tram rail_urban rail rail_electric rail_fast ship container cable_car subway aircraft wheelchair scooter drone" speed="8.94" length="8.42" shape="751.33,968.34 751.63,970.85 752.60,972.48 753.56,974.10 753.84,976.60"/>
        <lane id=":10069962757_0_1" index="1" disallow="tram rail_urban rail rail_electric rail_fast ship container cable_car subway aircraft wheelchair scooter drone" speed="8.94" length="8.42" shape="751.33,968.34 750.66,976.33"/>
    </edge>
    <edge id=":10069962757_2" function="internal">
        <lane id=":10069962757_2_0" index="0" disallow="tram rail_urban rail rail_electric rail_fast ship container cable_car subway aircraft wheelchair scooter drone" speed="8.94" length="7.99" shape="744.28,975.77 744.95,967.82"/>
        <lane id=":10069962757_2_1" index="1" disallow="tram rail_urban rail rail_electric rail_fast ship container cable_car subway aircraft wheelchair scooter drone" speed="8.94" length="7.99" shape="747.47,976.05 748.14,968.08"/>
    </edge>
    <edge id=":10264687054_0" function="internal">
        <lane id=":10264687054_0_0" index="0" disallow="tram rail_urban rail rail_electric rail_fast ship container cable_car subway aircraft wheelchair scooter drone" speed="11.18" length="8.41" shape="982.26,511.56 982.56,514.06 983.53,515.68 984.50,517.31 984.80,519.80"/>
        <lane id=":10264687054_0_1" index="1" disallow="tram rail_urban rail rail_electric rail_fast ship container cable_car subway aircraft wheelchair scooter drone" speed="11.18" length="8.41" shape="982.26,511.56 981.61,519.54"/>
    </edge>
    <edge id=":10264687054_2" function="internal">
        <lane id=":10264687054_2_0" index="0" disallow="tram rail_urban rail rail_electric rail_fast ship container cable_car subway aircraft wheelchair scooter drone" speed="11.18" length="8.40" shape="978.42,519.28 978.13,516.79 977.15,515.16 976.18,513.54 975.88,511.05"/>
        <lane id=":10264687054_2_1" index="1" disallow="tram rail_urban rail rail_electric rail_fast ship container cable_car subway aircraft wheelchair scooter drone" speed="11.18" length="8.40" shape="978.42,519.28 979.07,511.31"/>
    </edge>
    <edge id=":10264687055_0" function="internal">
        <lane id=":10264687055_0_0" index="0" disallow="tram rail_urban rail rail_electric rail_fast ship container cable_car subway aircraft wheelchair scooter drone" speed="11.18" length="8.41" shape="967.83,688.15 968.13,690.65 969.11,692.27 970.08,693.90 970.38,696.39"/>
        <lane id=":10264687055_0_1" index="1" disallow="tram rail_urban rail rail_electric rail_fast ship container cable_car subway aircraft wheelchair scooter drone" speed="11.18" length="8.41" shape="967.83,688.15 967.19,696.13"/>
    </edge>
    <edge id=":10264687055_2" function="internal">
        <lane id=":10264687055_2_0" index="0" disallow="tram rail_urban rail rail_electric rail_fast ship container cable_car subway aircraft wheelchair scooter drone" speed="11.18" length="8.39" shape="964.00,695.87 963.70,693.39 962.73,691.77 961.75,690.15 961.44,687.66"/>
        <lane id=":10264687055_2_1" index="1" disallow="tram rail_urban rail rail_electric rail_fast ship container cable_car subway aircraft wheelchair scooter drone" speed="11.18" length="8.39" shape="964.00,695.87 964.63,687.91"/>
    </edge>
    <edge id=":10264687057_0" function="internal">
        <lane id=":10264687057_0_0" index="0" disallow="tram rail_urban rail rail_electric rail_fast ship container cable_car subway aircraft wheelchair scooter drone" speed="11.18" length="8.41" shape="953.04,868.65 953.34,871.15 954.31,872.77 955.28,874.40 955.58,876.89"/>
        <lane id=":10264687057_0_1" index="1" disallow="tram rail_urban rail rail_electric rail_fast ship container cable_car subway aircraft wheelchair scooter drone" speed="11.18" length="8.41" shape="953.04,868.65 952.39,876.63"/>
    </edge>
    <edge id=":10264687057_2" function="internal">
        <lane id=":10264687057_2_0" index="0" disallow="tram rail_urban rail rail_electric rail_fast ship container cable_car subway aircraft wheelchair scooter drone" speed="11.18" length="8.40" shape="949.20,876.36 948.90,873.87 947.94,872.25 946.96,870.63 946.66,868.14"/>
        <lane id=":10264687057_2_1" index="1" disallow="tram rail_urban rail rail_electric rail_fast ship container cable_car subway aircraft wheelchair scooter drone" speed="11.18" length="8.40" shape="949.20,876.36 949.85,868.39"/>
    </edge>
    <edge id=":10264687059_0" function="internal">
        <lane id=":10264687059_0_0" index="0" disallow="tram rail_urban rail rail_electric rail_fast ship container cable_car subway aircraft wheelchair scooter drone" speed="11.18" length="8.41" shape="938.94,1041.54 939.23,1044.03 940.20,1045.66 941.16,1047.29 941.45,1049.79"/>
        <lane id=":10264687059_0_1" index="1" disallow="tram rail_urban rail rail_electric rail_fast ship container cable_car subway aircraft wheelchair scooter drone" speed="11.18" length="8.41" shape="938.94,1041.54 938.26,1049.51"/>
    </edge>
    <edge id=":10264687059_2" function="internal">
        <lane id=":10264687059_2_0" index="0" disallow="tram rail_urban rail rail_electric rail_fast ship container cable_car subway aircraft wheelchair scooter drone" speed="11.18" length="8.40" shape="935.07,1049.24 934.78,1046.74 933.82,1045.12 932.85,1043.49 932.56,1041.00"/>
        <lane id=":10264687059_2_1" index="1" disallow="tram rail_urban rail rail_electric rail_fast ship container cable_car subway aircraft wheelchair scooter drone" speed="11.18" length="8.40" shape="935.07,1049.24 935.75,1041.27"/>
    </edge>
    <edge id=":10264687061_0" function="internal">
        <lane id=":10264687061_0_0" index="0" disallow="tram rail_urban rail rail_electric rail_fast ship container cable_car subway aircraft wheelchair scooter drone" speed="11.18" length="8.41" shape="924.38,1218.71 924.68,1221.20 925.65,1222.83 926.62,1224.45 926.92,1226.95"/>
        <lane id=":10264687061_0_1" index="1" disallow="tram rail_urban rail rail_electric rail_fast ship container cable_car subway aircraft wheelchair scooter drone" speed="11.18" length="8.41" shape="924.38,1218.71 923.73,1226.68"/>
    </edge>
    <edge id=":10264687061_2" function="internal">
        <lane id=":10264687061_2_0" index="0" disallow="tram rail_urban rail rail_electric rail_fast ship container cable_car subway aircraft wheelchair scooter drone" speed="11.18" length="8.40" shape="920.54,1226.42 920.24,1223.93 919.27,1222.31 918.30,1220.69 918.00,1218.20"/>
        <lane id=":10264687061_2_1" index="1" disallow="tram rail_urban rail rail_electric rail_fast ship container cable_car subway aircraft wheelchair scooter drone" speed="11.18" length="8.40" shape="920.54,1226.42 921.19,1218.45"/>
    </edge>
    <edge id=":10264687063_0" function="internal">
        <lane id=":10264687063_0_0" index="0" disallow="tram rail_urban rail rail_electric rail_fast ship container cable_car subway aircraft wheelchair scooter drone" speed="11.18" length="8.41" shape="909.68,1397.16 909.98,1399.66 910.95,1401.28 911.91,1402.91 912.20,1405.41"/>
        <lane id=":10264687063_0_1" index="1" disallow="tram rail_urban rail rail_electric rail_fast ship container cable_car subway aircraft wheelchair scooter drone" speed="11.18" length="8.41" shape="909.68,1397.16 909.01,1405.14"/>
    </edge>
    <edge id=":10264687063_2" function="internal">
        <lane id=":10264687063_2_0" index="0" disallow="tram rail_urban rail rail_electric rail_fast ship container cable_car subway aircraft wheelchair scooter drone" speed="11.18" length="8.39" shape="905.82,1404.86 905.53,1402.37 904.57,1400.75 903.60,1399.13 903.30,1396.64"/>
        <lane id=":10264687063_2_1" index="1" disallow="tram rail_urban rail rail_electric rail_fast ship container cable_car subway aircraft wheelchair scooter drone" speed="11.18" length="8.39" shape="905.82,1404.86 906.49,1396.90"/>
    </edge>
    <edge id=":10264687065_0" function="internal">
        <lane id=":10264687065_0_0" index="0" disallow="tram rail_urban rail rail_electric rail_fast ship container cable_car subway aircraft wheelchair scooter drone" speed="11.18" length="8.41" shape="895.12,1575.62 895.42,1578.11 896.39,1579.74 897.37,1581.36 897.66,1583.86"/>
        <lane id=":10264687065_0_1" index="1" disallow="tram rail_urban rail rail_electric rail_fast ship container cable_car subway aircraft wheelchair scooter drone" speed="11.18" length="8.41" shape="895.12,1575.62 894.47,1583.60"/>
    </edge>
    <edge id=":10264687065_2" function="internal">
        <lane id=":10264687065_2_0" index="0" disallow="tram rail_urban rail rail_electric rail_fast ship container cable_car subway aircraft wheelchair scooter drone" speed="11.18" length="8.40" shape="891.28,1583.33 890.99,1580.84 890.02,1579.22 889.04,1577.60 888.74,1575.11"/>
        <lane id=":10264687065_2_1" index="1" disallow="tram rail_urban rail rail_electric rail_fast ship container cable_car subway aircraft wheelchair scooter drone" speed="11.18" length="8.40" shape="891.28,1583.33 891.93,1575.36"/>
    </edge>
    <edge id=":10264687066_0" function="internal">
        <lane id=":10264687066_0_0" index="0" disallow="tram rail_urban rail rail_electric rail_fast ship container cable_car subway aircraft wheelchair scooter drone" speed="3.65" length="4.67" shape="886.68,1678.23 885.79,1679.36 884.96,1679.69 884.19,1679.23 883.49,1677.96"/>
    </edge>
    <edge id=":10712988204_0" function="internal">
        <lane id=":10712988204_0_0" index="0" disallow="tram rail_urban rail rail_electric rail_fast ship container cable_car subway aircraft wheelchair scooter drone" speed="3.65" length="4.67" shape="802.37,1521.85 801.48,1522.98 800.65,1523.31 799.88,1522.85 799.18,1521.58"/>
    </edge>
    <edge id=":10713016405_0" function="internal">
        <lane id=":10713016405_0_0" index="0" disallow="tram rail_urban rail rail_electric rail_fast ship container cable_car subway aircraft wheelchair scooter drone" speed="3.65" length="4.67" shape="826.08,1189.87 826.96,1188.73 827.79,1188.38 828.56,1188.83 829.28,1190.08"/>
    </edge>
    <edge id=":10790836779_0" function="internal">
        <lane id=":10790836779_0_0" index="0" disallow="tram rail_urban rail rail_electric rail_fast ship container cable_car subway aircraft wheelchair scooter drone" speed="3.65" length="4.67" shape="840.76,1012.02 841.65,1010.89 842.48,1010.56 843.25,1011.02 843.95,1012.29"/>
    </edge>
    <edge id=":10790836782_0" function="internal">
        <lane id=":10790836782_0_0" index="0" disallow="tram rail_urban rail rail_electric rail_fast ship container cable_car subway aircraft wheelchair scooter drone" speed="3.65" length="4.67" shape="855.61,833.84 856.50,832.71 857.33,832.37 858.10,832.84 858.80,834.10"/>
    </edge>
    <edge id=":10946858782_0" function="internal">
        <lane id=":10946858782_0_0" index="0" disallow="tram rail_urban rail rail_electric rail_fast ship container cable_car subway aircraft wheelchair scooter drone" speed="8.09" length="10.89" shape="395.27,1568.90 391.58,1568.78 388.71,1569.22 386.65,1570.23 385.40,1571.79"/>
    </edge>
    <edge id=":10946858782_1" function="internal">
        <lane id=":10946858782_1_0" index="0" disallow="tram rail_urban rail rail_electric rail_fast ship container cable_car subway aircraft wheelchair scooter drone" speed="3.65" length="1.44" shape="395.27,1568.90 394.15,1567.99"/>
    </edge>
    <edge id=":10946858782_4" function="internal">
        <lane id=":10946858782_4_0" index="0" disallow="tram rail_urban rail rail_electric rail_fast ship container cable_car subway aircraft wheelchair scooter drone" speed="3.65" length="3.23" shape="394.15,1567.99 393.84,1567.15 394.31,1566.40 395.58,1565.72"/>
    </edge>
    <edge id=":10946858782_2" function="internal">
        <lane id=":10946858782_2_0" index="0" disallow="tram rail_urban rail rail_electric rail_fast ship container cable_car subway aircraft wheelchair scooter drone" speed="6.26" length="9.05" shape="391.07,1559.48 390.88,1562.00 391.57,1563.87 393.13,1565.11 395.58,1565.72"/>
    </edge>
    <edge id=":10946858782_3" function="internal">
        <lane id=":10946858782_3_0" index="0" disallow="tram rail_urban rail rail_electric rail_fast ship container cable_car subway aircraft wheelchair scooter drone" speed="13.89" length="8.57" shape="391.07,1559.48 390.02,1562.82 388.60,1565.76 387.72,1567.34"/>
    </edge>
    <edge id=":10946858782_5" function="internal">
        <lane id=":10946858782_5_0" index="0" disallow="tram rail_urban rail rail_electric rail_fast ship container cable_car subway aircraft wheelchair scooter drone" speed="13.89" length="5.02" shape="387.72,1567.34 387.01,1568.63 385.40,1571.79"/>
    </edge>
    <edge id=":12234939119_0" function="internal">
        <lane id=":12234939119_0_0" index="0" disallow="tram rail_urban rail rail_electric rail_fast ship container cable_car subway aircraft wheelchair scooter drone" speed="3.65" length="4.67" shape="1013.34,94.32 1014.23,93.19 1015.06,92.85 1015.83,93.32 1016.53,94.58"/>
    </edge>
    <edge id=":12282031194_0" function="internal">
        <lane id=":12282031194_0_0" index="0" disallow="tram rail_urban rail rail_electric rail_fast ship container cable_car subway aircraft wheelchair scooter drone" speed="11.18" length="0.30" shape="426.44,66.10 426.46,65.80"/>
        <lane id=":12282031194_0_1" index="1" disallow="tram rail_urban rail rail_electric rail_fast ship container cable_car subway aircraft wheelchair scooter drone" speed="11.18" length="0.30" shape="429.62,66.38 429.65,66.07"/>
    </edge>
    <edge id=":12282031195_0" function="internal">
        <lane id=":12282031195_0_0" index="0" disallow="tram rail_urban rail rail_electric rail_fast ship container cable_car subway aircraft wheelchair scooter drone" speed="11.18" length="0.10" shape="438.44,66.87 438.44,66.87"/>
        <lane id=":12282031195_0_1" index="1" disallow="tram rail_urban rail rail_electric rail_fast ship container cable_car subway aircraft wheelchair scooter drone" speed="11.18" length="0.10" shape="435.25,66.59 435.25,66.59"/>
    </edge>
    <edge id=":12809540186_0" function="internal">
        <lane id=":12809540186_0_0" index="0" disallow="tram rail_urban rail rail_electric rail_fast ship container cable_car subway aircraft wheelchair scooter drone" speed="6.52" length="9.04" shape="508.11,1605.30 505.64,1605.45 503.81,1606.35 502.61,1608.01 502.06,1610.42"/>
    </edge>
    <edge id=":12809540186_1" function="internal">
        <lane id=":12809540186_1_0" index="0" disallow="tram rail_urban rail rail_electric rail_fast ship container cable_car subway aircraft wheelchair scooter drone" speed="8.94" length="11.21" shape="503.04,1599.25 502.06,1610.42"/>
    </edge>
    <edge id=":12809540186_2" function="internal">
        <lane id=":12809540186_2_0" index="0" disallow="tram rail_urban rail rail_electric rail_fast ship container cable_car subway aircraft wheelchair scooter drone" speed="8.94" length="11.24" shape="498.87,1610.15 499.85,1598.96"/>
    </edge>
    <edge id=":12809540186_3" function="internal">
        <lane id=":12809540186_3_0" index="0" disallow="tram rail_urban rail rail_electric rail_fast ship container cable_car subway aircraft wheelchair scooter drone" speed="3.65" length="1.44" shape="498.87,1610.15 499.77,1609.02"/>
    </edge>
    <edge id=":12809540186_4" function="internal">
        <lane id=":12809540186_4_0" index="0" disallow="tram rail_urban rail rail_electric rail_fast ship container cable_car subway aircraft wheelchair scooter drone" speed="3.65" length="3.23" shape="499.77,1609.02 500.60,1608.69 501.36,1609.16 502.06,1610.42"/>
    </edge>
    <edge id=":12809540188_0" function="internal">
        <lane id=":12809540188_0_0" index="0" disallow="tram rail_urban rail rail_electric rail_fast ship container cable_car subway aircraft wheelchair scooter drone" speed="8.94" length="14.40" shape="563.13,880.36 561.94,894.71"/>
    </edge>
    <edge id=":12809540188_1" function="internal">
        <lane id=":12809540188_1_0" index="0" disallow="tram rail_urban rail rail_electric rail_fast ship container cable_car subway aircraft wheelchair scooter drone" speed="6.53" length="9.09" shape="553.84,885.23 556.33,885.08 558.18,884.17 559.39,882.51 559.94,880.09"/>
    </edge>
    <edge id=":12809540188_2" function="internal">
        <lane id=":12809540188_2_0" index="0" disallow="tram rail_urban rail rail_electric rail_fast ship container cable_car subway aircraft wheelchair scooter drone" speed="6.51" length="9.03" shape="558.75,894.44 558.60,891.98 557.70,890.16 556.03,888.97 553.61,888.42"/>
    </edge>
    <edge id=":12809540188_3" function="internal">
        <lane id=":12809540188_3_0" index="0" disallow="tram rail_urban rail rail_electric rail_fast ship container cable_car subway aircraft wheelchair scooter drone" speed="8.94" length="14.40" shape="558.75,894.44 559.94,880.09"/>
    </edge>
    <edge id=":12809540188_4" function="internal">
        <lane id=":12809540188_4_0" index="0" disallow="tram rail_urban rail rail_electric rail_fast ship container cable_car subway aircraft wheelchair scooter drone" speed="3.65" length="1.44" shape="558.75,894.44 559.65,893.31"/>
    </edge>
    <edge id=":12809540188_5" function="internal">
        <lane id=":12809540188_5_0" index="0" disallow="tram rail_urban rail rail_electric rail_fast ship container cable_car subway aircraft wheelchair scooter drone" speed="3.65" length="3.23" shape="559.65,893.31 560.48,892.98 561.24,893.45 561.94,894.71"/>
    </edge>
    <edge id=":12809540189_0" function="internal">
        <lane id=":12809540189_0_0" index="0" disallow="tram rail_urban rail rail_electric rail_fast ship container cable_car subway aircraft wheelchair scooter drone" speed="8.94" length="14.40" shape="548.26,1057.70 547.06,1072.05"/>
    </edge>
    <edge id=":12809540189_1" function="internal">
        <lane id=":12809540189_1_0" index="0" disallow="tram rail_urban rail rail_electric rail_fast ship container cable_car subway aircraft wheelchair scooter drone" speed="8.04" length="4.02" shape="548.26,1057.70 547.39,1061.45 547.29,1061.59"/>
    </edge>
    <edge id=":12809540189_2" function="internal">
        <lane id=":12809540189_2_0" index="0" disallow="tram rail_urban rail rail_electric rail_fast ship container cable_car subway aircraft wheelchair scooter drone" speed="3.65" length="1.44" shape="548.26,1057.70 547.36,1058.83"/>
    </edge>
    <edge id=":12809540189_9" function="internal">
        <lane id=":12809540189_9_0" index="0" disallow="tram rail_urban rail rail_electric rail_fast ship container cable_car subway aircraft wheelchair scooter drone" speed="8.04" length="10.19" shape="547.29,1061.59 545.50,1064.04 542.61,1065.47 538.69,1065.73"/>
    </edge>
    <edge id=":12809540189_10" function="internal">
        <lane id=":12809540189_10_0" index="0" disallow="tram rail_urban rail rail_electric rail_fast ship container cable_car subway aircraft wheelchair scooter drone" speed="3.65" length="3.23" shape="547.36,1058.83 546.53,1059.16 545.77,1058.69 545.07,1057.43"/>
    </edge>
    <edge id=":12809540189_3" function="internal">
        <lane id=":12809540189_3_0" index="0" disallow="tram rail_urban rail rail_electric rail_fast ship container cable_car subway aircraft wheelchair scooter drone" speed="6.53" length="9.03" shape="539.00,1062.55 541.48,1062.38 543.32,1061.47 544.52,1059.82 545.07,1057.43"/>
    </edge>
    <edge id=":12809540189_4" function="internal">
        <lane id=":12809540189_4_0" index="0" disallow="tram rail_urban rail rail_electric rail_fast ship container cable_car subway aircraft wheelchair scooter drone" speed="7.98" length="14.24" shape="539.00,1062.55 542.80,1063.38 545.41,1065.24 546.83,1068.13 547.06,1072.05"/>
    </edge>
    <edge id=":12809540189_5" function="internal">
        <lane id=":12809540189_5_0" index="0" disallow="tram rail_urban rail rail_electric rail_fast ship container cable_car subway aircraft wheelchair scooter drone" speed="3.65" length="4.67" shape="539.00,1062.55 540.12,1063.46 540.44,1064.29 539.96,1065.05 538.69,1065.73"/>
    </edge>
    <edge id=":12809540189_6" function="internal">
        <lane id=":12809540189_6_0" index="0" disallow="tram rail_urban rail rail_electric rail_fast ship container cable_car subway aircraft wheelchair scooter drone" speed="6.50" length="9.10" shape="543.87,1071.78 543.72,1069.29 542.81,1067.45 541.13,1066.26 538.69,1065.73"/>
    </edge>
    <edge id=":12809540189_7" function="internal">
        <lane id=":12809540189_7_0" index="0" disallow="tram rail_urban rail rail_electric rail_fast ship container cable_car subway aircraft wheelchair scooter drone" speed="8.94" length="14.40" shape="543.87,1071.78 545.07,1057.43"/>
    </edge>
    <edge id=":12809540189_8" function="internal">
        <lane id=":12809540189_8_0" index="0" disallow="tram rail_urban rail rail_electric rail_fast ship container cable_car subway aircraft wheelchair scooter drone" speed="3.65" length="1.44" shape="543.87,1071.78 544.76,1070.65"/>
    </edge>
    <edge id=":12809540189_11" function="internal">
        <lane id=":12809540189_11_0" index="0" disallow="tram rail_urban rail rail_electric rail_fast ship container cable_car subway aircraft wheelchair scooter drone" speed="3.65" length="3.23" shape="544.76,1070.65 545.60,1070.32 546.36,1070.79 547.06,1072.05"/>
    </edge>
    <edge id=":12816643521_0" function="internal">
        <lane id=":12816643521_0_0" index="0" disallow="tram rail_urban rail rail_electric rail_fast ship container cable_car subway aircraft wheelchair scooter drone" speed="11.18" length="8.41" shape="1011.17,161.79 1011.47,164.29 1012.43,165.92 1013.40,167.54 1013.69,170.04"/>
        <lane id=":12816643521_0_1" index="1" disallow="tram rail_urban rail rail_electric rail_fast ship container cable_car subway aircraft wheelchair scooter drone" speed="11.18" length="8.41" shape="1011.17,161.79 1010.50,169.77"/>
    </edge>
    <edge id=":12816643521_2" function="internal">
        <lane id=":12816643521_2_0" index="0" disallow="tram rail_urban rail rail_electric rail_fast ship container cable_car subway aircraft wheelchair scooter drone" speed="11.18" length="8.40" shape="1007.31,169.50 1007.02,167.00 1006.06,165.38 1005.09,163.76 1004.79,161.26"/>
        <lane id=":12816643521_2_1" index="1" disallow="tram rail_urban rail rail_electric rail_fast ship container cable_car subway aircraft wheelchair scooter drone" speed="11.18" length="8.40" shape="1007.31,169.50 1007.98,161.53"/>
    </edge>
    <edge id=":12816643522_0" function="internal">
        <lane id=":12816643522_0_0" index="0" disallow="tram rail_urban rail rail_electric rail_fast ship container cable_car subway aircraft wheelchair scooter drone" speed="11.18" length="8.78" shape="1006.85,250.04 1006.14,252.44 1004.92,253.88 1003.70,255.32 1003.02,257.72"/>
    </edge>
    <edge id=":12816643522_1" function="internal">
        <lane id=":12816643522_1_0" index="0" disallow="tram rail_urban rail rail_electric rail_fast ship container cable_car subway aircraft wheelchair scooter drone" speed="11.18" length="8.83" shape="996.64,257.23 997.32,254.81 998.54,253.36 999.77,251.91 1000.47,249.49"/>
    </edge>
    <edge id=":1636827304_0" function="internal">
        <lane id=":1636827304_0_0" index="0" disallow="tram rail_urban rail rail_electric rail_fast ship container cable_car subway aircraft wheelchair scooter drone" speed="3.65" length="4.67" shape="1308.28,29.82 1309.19,28.70 1310.02,28.37 1310.78,28.85 1311.47,30.11"/>
    </edge>
    <edge id=":1677788926_0" function="internal">
        <lane id=":1677788926_0_0" index="0" disallow="tram rail_urban rail rail_electric rail_fast ship container cable_car subway aircraft wheelchair scooter drone" speed="13.89" length="14.33" shape="1220.57,1211.98 1206.28,1210.92"/>
    </edge>
    <edge id=":1677788926_1" function="internal">
        <lane id=":1677788926_1_0" index="0" disallow="tram rail_urban rail rail_electric rail_fast ship container cable_car subway aircraft wheelchair scooter drone" speed="7.99" length="4.02" shape="1220.57,1211.98 1216.77,1211.12 1216.67,1211.05"/>
    </edge>
    <edge id=":1677788926_2" function="internal">
        <lane id=":1677788926_2_0" index="0" disallow="tram rail_urban rail rail_electric rail_fast ship container cable_car subway aircraft wheelchair scooter drone" speed="3.65" length="1.44" shape="1220.57,1211.98 1219.44,1211.09"/>
    </edge>
    <edge id=":1677788926_9" function="internal">
        <lane id=":1677788926_9_0" index="0" disallow="tram rail_urban rail rail_electric rail_fast ship container cable_car subway aircraft wheelchair scooter drone" speed="7.99" length="10.19" shape="1216.67,1211.05 1214.17,1209.25 1212.76,1206.37 1212.54,1202.48"/>
    </edge>
    <edge id=":1677788926_10" function="internal">
        <lane id=":1677788926_10_0" index="0" disallow="tram rail_urban rail rail_electric rail_fast ship container cable_car subway aircraft wheelchair scooter drone" speed="3.65" length="3.23" shape="1219.44,1211.09 1219.11,1210.26 1219.57,1209.49 1220.83,1208.79"/>
    </edge>
    <edge id=":1677788926_3" function="internal">
        <lane id=":1677788926_3_0" index="0" disallow="tram rail_urban rail rail_electric rail_fast ship container cable_car subway aircraft wheelchair scooter drone" speed="6.49" length="9.03" shape="1215.73,1202.75 1215.86,1205.23 1216.76,1207.06 1218.42,1208.25 1220.83,1208.79"/>
    </edge>
    <edge id=":1677788926_4" function="internal">
        <lane id=":1677788926_4_0" index="0" disallow="tram rail_urban rail rail_electric rail_fast ship container cable_car subway aircraft wheelchair scooter drone" speed="8.06" length="14.18" shape="1215.73,1202.75 1214.85,1206.55 1212.98,1209.17 1210.13,1210.63 1206.28,1210.92"/>
    </edge>
    <edge id=":1677788926_5" function="internal">