<?xml version="1.0" encoding="UTF-8"?>
<!-- Stage 1: 空路导航 - 只有ego车辆，无其他交通参与者 -->
<routes xmlns:xsi="http://www.w3.org/2001/XMLSchema-instance" xsi:noNamespaceSchemaLocation="http://sumo.dlr.de/xsd/routes_file.xsd">
    <!-- 车辆类型定义 -->
    <vType id="ego_vehicle" accel="2.6" decel="4.5" sigma="0.0" length="5.0" maxSpeed="15.0" color="0,255,0"/>
    
    <!-- Ego车辆 - 路由将在运行时动态生成 -->
    <!-- <vehicle id="ego" type="ego_vehicle" depart="0" color="0,255,0"/> -->
</routes>
